tests_reactive_market/example.glm
//Input feeder information for masters thesis.
//Started on 10/21/09. This version created 26-Mar-2010 18:46:43.

clock {
     timezone PST+8PDT;
     starttime '2000-01-01 00:00:00';
     stoptime '2000-01-01 02:15:00';
}

#set minimum_timestep=60;

module assert;
module tape;

module residential {
     implicit_enduses NONE;
};
module climate;
module powerflow {
     //solver_method NR;
    /// NR_iteration_limit 50;
};

module market;
module generators;
class auction {
    double current_price_mean_30min;
    double current_price_stdev_30min;
}
object auction {
    name Market_town1;
    special_mode NONE;
    unit kW;
    type 2;
    period 900;
    init_price 50;
    init_stdev 0;
   warmup 0;
    object multi_recorder {
 	property current_market.clearing_price,current_market.clearing_quantity,current_market.seller_total_quantity,current_market.buyer_total_quantity;
 	file "market_town1.csv";
 	interval 900;
 	limit 10000;
 	};
}



object auction {
    name Market_town2;
    special_mode NONE;
    type 3;
    unit kW;
    period 600;
    init_price 50;
    init_stdev 0;
   warmup 0;
    object multi_recorder {
 	property current_market.clearing_price,current_market.clearing_quantity,current_market.seller_total_quantity,current_market.buyer_total_quantity;
 	file "market_town2.csv";
 	interval 600;
 	limit 168;
 	};
 	
 	
 	object stub_bidder{
	             name seller1_town2;
	             role SELLER;
	             bid_period 600;
	             market Market_town2;
	             price 70;
	             quantity 1;
	             count 10000;
	          };
	          
	            object stub_bidder{
		               name buyer1_town2;
		               role BUYER;
		               bid_period 600;
		               market Market_town2;
		               price 70;
		               quantity 1;
		               count 10000;
          };
}

     
      
     

  object stub_bidder{
        name seller1_town1;
        role SELLER;
        bid_period 900;
        market Market_town1;
        price 50;
        quantity 6;
        count 10000;
     };
      object stub_bidder{
             name seller2_town1;
             role BUYER;
             bid_period 900;
             market Market_town1;
             price 50;
             quantity 2;
             count 10000;
     };
     
     
      
     schedule lighting {
     	Weekday_Summer {
     	*  0 * 4-9 1-5 0.380; *  1 * 4-9 1-5 0.340; *  2 * 4-9 1-5 0.320; *  3 * 4-9 1-5 0.320;
     	*  4 * 4-9 1-5 0.320; *  5 * 4-9 1-5 0.350; *  6 * 4-9 1-5 0.410; *  7 * 4-9 1-5 0.450;
     	*  8 * 4-9 1-5 0.450; *  9 * 4-9 1-5 0.450; * 10 * 4-9 1-5 0.450; * 11 * 4-9 1-5 0.450;
     	* 12 * 4-9 1-5 0.450; * 13 * 4-9 1-5 0.440; * 14 * 4-9 1-5 0.440; * 15 * 4-9 1-5 0.450;
     	* 16 * 4-9 1-5 0.470; * 17 * 4-9 1-5 0.510; * 18 * 4-9 1-5 0.540; * 19 * 4-9 1-5 0.560;
     	* 20 * 4-9 1-5 0.630; * 21 * 4-9 1-5 0.710; * 22 * 4-9 1-5 0.650; * 23 * 4-9 1-5 0.490;
     	}
     	Weekend_Summer {
     	*  0 * 4-9 6-0 0.410; *  1 * 4-9 6-0 0.360; *  2 * 4-9 6-0 0.330; *  3 * 4-9 6-0 0.320;
     	*  4 * 4-9 6-0 0.320; *  5 * 4-9 6-0 0.320; *  6 * 4-9 6-0 0.340; *  7 * 4-9 6-0 0.390;
     	*  8 * 4-9 6-0 0.440; *  9 * 4-9 6-0 0.470; * 10 * 4-9 6-0 0.470; * 11 * 4-9 6-0 0.470;
     	* 12 * 4-9 6-0 0.470; * 13 * 4-9 6-0 0.460; * 14 * 4-9 6-0 0.460; * 15 * 4-9 6-0 0.460;
     	* 16 * 4-9 6-0 0.470; * 17 * 4-9 6-0 0.490; * 18 * 4-9 6-0 0.520; * 19 * 4-9 6-0 0.540;
     	* 20 * 4-9 6-0 0.610; * 21 * 4-9 6-0 0.680; * 22 * 4-9 6-0 0.630; * 23 * 4-9 6-0 0.500;
     	}
     	Weekday_Winter {
     	*  0 * 10-3 1-5 0.4200; *  1 * 10-3 1-5 0.3800; *  2 * 10-3 1-5 0.3700; *  3 * 10-3 1-5 0.3600;
     	*  4 * 10-3 1-5 0.3700; *  5 * 10-3 1-5 0.4200; *  6 * 10-3 1-5 0.5800; *  7 * 10-3 1-5 0.6900;
     	*  8 * 10-3 1-5 0.6100; *  9 * 10-3 1-5 0.5600; * 10 * 10-3 1-5 0.5300; * 11 * 10-3 1-5 0.5100;
     	* 12 * 10-3 1-5 0.4900; * 13 * 10-3 1-5 0.4700; * 14 * 10-3 1-5 0.4700; * 15 * 10-3 1-5 0.5100;
     	* 16 * 10-3 1-5 0.6300; * 17 * 10-3 1-5 0.8400; * 18 * 10-3 1-5 0.9700; * 19 * 10-3 1-5 0.9800;
     	* 20 * 10-3 1-5 0.9600; * 21 * 10-3 1-5 0.8900; * 22 * 10-3 1-5 0.7400; * 23 * 10-3 1-5 0.5500;
     	}
     	Weekend_Winter {
     	*  0 * 10-3 6-0 0.4900; *  1 * 10-3 6-0 0.4200; *  2 * 10-3 6-0 0.3800; *  3 * 10-3 6-0 0.3800;
     	*  4 * 10-3 6-0 0.3700; *  5 * 10-3 6-0 0.3800; *  6 * 10-3 6-0 0.4300; *  7 * 10-3 6-0 0.5100;
     	*  8 * 10-3 6-0 0.6000; *  9 * 10-3 6-0 0.6300; * 10 * 10-3 6-0 0.6300; * 11 * 10-3 6-0 0.6100;
     	* 12 * 10-3 6-0 0.6000; * 13 * 10-3 6-0 0.5900; * 14 * 10-3 6-0 0.5900; * 15 * 10-3 6-0 0.6100;
     	* 16 * 10-3 6-0 0.7100; * 17 * 10-3 6-0 0.8800; * 18 * 10-3 6-0 0.9600; * 19 * 10-3 6-0 0.9700;
     	* 20 * 10-3 6-0 0.9400; * 21 * 10-3 6-0 0.8800; * 22 * 10-3 6-0 0.7600; * 23 * 10-3 6-0 0.5800;
     	}
     }
     schedule my_price {
     	* 0-9 * * * 1;
     	* 10-21 * * * 2;
     	* 22-23 * * * 1;
     }
     
     
     object triplex_meter {
     	name triplex_2;
     	nominal_voltage 120;
     	phases AS;
     	object recorder {
     		file "meter.csv";
     		property measured_demand,measured_reactive_power,measured_real_power;
     		interval 900;
     	};
     }
     
  //   object capacitor {
   // parent triplex_2;
   ///  	phases AS;
   ///  	name CapNode;
   ///  	phases_connected A;
   //  	control MANUAL;
   //  	capacitor_A 0.5 MVAr;
   //  	capacitor_B 0.5 MVAr;
   //  	capacitor_C 0.5 MVAr;
   //  	control_level INDIVIDUAL;
   //  	switchA OPEN;
   //  	switchB OPEN;
   //  	switchC OPEN;
   //  	nominal_voltage 120;
   //  	
   //  	object recorder {
//	     		file "capacitor.csv";
//	     		property switchC,switchA,switchB;
//	     		interval 900;
   //  	};
//	}

	
     //object load:5 {
     //	phases "AS";
     //	name load5;
     //	parent triplex_2;
     ///	voltage_A +2401.777+0.000j;
     ///	voltage_B -1200.889-2080.000j;
     ///	voltage_C -1200.889+2080.000j;
     ///	constant_power_A +1000;
     ///	constant_power_B +1000;
     ///	constant_power_C +1000;
     //	nominal_voltage 120;
     //}
     
     object house {
          parent triplex_2;
          groupid Residential;
          floor_area 1711;
          //Thermal integrity -> Single Family 5
          Rroof 34.06;
          Rwall 19.73;
          Rfloor 22.48;
          glazing_layers 2;
          glass_type 1;
          glazing_treatment 1;
          window_frame 2;
          Rdoors 3.23;
          airchange_per_hour 1.01;
     /////////////bazoun to A\C//////////////////////////////
      heating_setpoint 5;
       cooling_setpoint 25;                              
      
      air_temperature 72;
       outdoor_temperature 73; 
      
      
      //////////////////////////////////////////////////////
     //cooling_setpoint 70;
     // heating_setpoint 65;
     // air_temperature 72;
      
       object controller {
       			name hvac_control;
       			market Market_town1;
       			market_reactive Market_town2;
       			bid_mode ON;
       			control_mode DOUBLE_RAMP;
       			resolve_mode DEADBAND;
       			// slider_setting_heat 1;
       			// slider_setting_cool 1;
       			heating_base_setpoint 5;
       			cooling_base_setpoint 30;
       			period 900;
       			
       			average_target current_price_mean_30min;
       			standard_deviation_target current_price_stdev_30min;
       			target air_temperature;
       			heating_setpoint heating_setpoint;
       			heating_demand heating_demand;
       			cooling_setpoint cooling_setpoint;
       			cooling_demand cooling_demand;
       			deadband thermostat_deadband;
       			total hvac_load;
       			load hvac_load;
       			state power_state;
       			heating_range_high 4;
       			heating_range_low -5;
       			heating_ramp_high -2;
       			heating_ramp_low -2;
       			cooling_range_high 5;
       			cooling_range_low -4;
       			cooling_ramp_high 2;
       			cooling_ramp_low 3;
       			
       			 object multi_recorder {
      							property bid_quantity,bid_price;
      							file "check_defaults_output3.csv";
      							 interval 900;
      							 limit 4320;
      			 };
       			
     			};
      
      
     object reactive_controller {
     			
     			name hvac_control2;
      			market Market_town2;
      			bid_mode ON;
      			period 900;
      			average_target current_price_mean_30min;
      			standard_deviation_target current_price_stdev_30min;
      			//total total_load;
      			///load hvac_load;
      			reactive reactive;
      			object multi_recorder {
     										property bid_quantity,bid_price;
     										file "reactive.csv";
     										 interval 900;
     										 limit 4320;
     			 };
     
     
     };
     object lights {
     	  		type SSL;
     	  		installed_power 760 W;
     	  		shape "type: analog; schedule: lighting; power: .76 kW";
     	  		
     	  
     	  		object recorder{
     	  			property power,actual_power;
     	  			file "test_lights_explicit_power1.csv";
     	  			interval 900;
     	  			limit 580;
     	  	};
     	  		
	};
     
     	object recorder{
     	  			property heating_setpoint,cooling_setpoint,power_state,reactive;
     	  			file "test_lights_explicit_power2.csv";
     	  			interval 900;
     	  			limit 854;
       		};
     
     
}
   

 object house {
          parent triplex_2;
          groupid Residential;
          floor_area 1711;
          //Thermal integrity -> Single Family 5
          Rroof 34.06;
          Rwall 19.73;
          Rfloor 22.48;
          glazing_layers 2;
          glass_type 1;
          glazing_treatment 1;
          window_frame 2;
          Rdoors 3.23;
          airchange_per_hour 1.01;
     /////////////bazoun to A\C//////////////////////////////
      heating_setpoint 5;
       cooling_setpoint 25;                              
      
      air_temperature 72;
       outdoor_temperature 73; 
      
      
      //////////////////////////////////////////////////////
     //cooling_setpoint 70;
     // heating_setpoint 65;
     // air_temperature 72;
      
       object controller {
       			name hvac_control2_;
       			market Market_town1;
       			market_reactive Market_town2;
       			bid_mode ON;
       			control_mode DOUBLE_RAMP;
       			resolve_mode DEADBAND;
       			// slider_setting_heat 1;
       			// slider_setting_cool 1;
       			heating_base_setpoint 5;
       			cooling_base_setpoint 30;
       			period 900;
       			
       			average_target current_price_mean_30min;
       			standard_deviation_target current_price_stdev_30min;
       			target air_temperature;
       			heating_setpoint heating_setpoint;
       			heating_demand heating_demand;
       			cooling_setpoint cooling_setpoint;
       			cooling_demand cooling_demand;
       			deadband thermostat_deadband;
       			total hvac_load;
       			load hvac_load;
       			state power_state;
       			heating_range_high 4;
       			heating_range_low -5;
       			heating_ramp_high -2;
       			heating_ramp_low -2;
       			cooling_range_high 5;
       			cooling_range_low -4;
       			cooling_ramp_high 2;
       			cooling_ramp_low 3;
       			
       			 object multi_recorder {
      							property bid_quantity,bid_price;
      							file "market2.csv";
      							 interval 900;
      							 limit 4320;
      			 };
       			
     			};
      
      
     object reactive_controller {
     			
     			name hvac_control22;
      			market Market_town2;
      			bid_mode ON;
      			period 900;
      			average_target current_price_mean_30min;
      			standard_deviation_target current_price_stdev_30min;
      			//total total_load;
      			///load hvac_load;
      			reactive reactive;
      			object multi_recorder {
     										property bid_quantity,bid_price;
     										file "reactive2.csv";
     										 interval 900;
     										 limit 4320;
     			 };
     
     
     };
     object lights {
     	  		type SSL;
     	  		installed_power 760 W;
     	  		shape "type: analog; schedule: lighting; power: .76 kW";
     	  		
     	  
     	  		object recorder{
     	  			property power,actual_power;
     	  			file "test_lights_explicit_power2.csv";
     	  			interval 900;
     	  			limit 580;
     	  	};
     	  		
	};
     
     	
     
     
}

 object house {
          parent triplex_2;
          groupid Residential;
          floor_area 1711;
          //Thermal integrity -> Single Family 5
          Rroof 34.06;
          Rwall 19.73;
          Rfloor 22.48;
          glazing_layers 2;
          glass_type 1;
          glazing_treatment 1;
          window_frame 2;
          Rdoors 3.23;
          airchange_per_hour 1.01;
     /////////////bazoun to A\C//////////////////////////////
      heating_setpoint 5;
       cooling_setpoint 25;                              
      
      air_temperature 72;
       outdoor_temperature 73; 
      
      
      //////////////////////////////////////////////////////
     //cooling_setpoint 70;
     // heating_setpoint 65;
     // air_temperature 72;
      
       object controller {
       			name hvac_control3;
       			market Market_town1;
       			market_reactive Market_town2;
       			bid_mode ON;
       			control_mode DOUBLE_RAMP;
       			resolve_mode DEADBAND;
       			// slider_setting_heat 1;
       			// slider_setting_cool 1;
       			heating_base_setpoint 5;
       			cooling_base_setpoint 30;
       			period 900;
       			
       			average_target current_price_mean_30min;
       			standard_deviation_target current_price_stdev_30min;
       			target air_temperature;
       			heating_setpoint heating_setpoint;
       			heating_demand heating_demand;
       			cooling_setpoint cooling_setpoint;
       			cooling_demand cooling_demand;
       			deadband thermostat_deadband;
       			total hvac_load;
       			load hvac_load;
       			state power_state;
       			heating_range_high 4;
       			heating_range_low -5;
       			heating_ramp_high -2;
       			heating_ramp_low -2;
       			cooling_range_high 5;
       			cooling_range_low -4;
       			cooling_ramp_high 2;
       			cooling_ramp_low 3;
       			
       			 object multi_recorder {
      							property bid_quantity,bid_price;
      							file "active3.csv";
      							 interval 900;
      							 limit 4320;
      			 };
       			
     			};
      
      
     object reactive_controller {
     			
     			name hvac_control23;
      			market Market_town2;
      			bid_mode ON;
      			period 900;
      			average_target current_price_mean_30min;
      			standard_deviation_target current_price_stdev_30min;
      			//total total_load;
      			///load hvac_load;
      			reactive reactive;
      			object multi_recorder {
     										property bid_quantity,bid_price;
     										file "reactive3.csv";
     										 interval 900;
     										 limit 4320;
     			 };
     
     
     };
     object lights {
     	  		type SSL;
     	  		installed_power 760 W;
     	  		shape "type: analog; schedule: lighting; power: .76 kW";
     	  		
     	  
     	  		object recorder{
     	  			property power,actual_power;
     	  			file "test_lights_explicit_power3.csv";
     	  			interval 900;
     	  			limit 580;
     	  	};
     	  		
	};
    
     
     
}

 object house {
          parent triplex_2;
          groupid Residential;
          floor_area 1711;
          //Thermal integrity -> Single Family 5
          Rroof 34.06;
          Rwall 19.73;
          Rfloor 22.48;
          glazing_layers 2;
          glass_type 1;
          glazing_treatment 1;
          window_frame 2;
          Rdoors 3.23;
          airchange_per_hour 1.01;
     /////////////bazoun to A\C//////////////////////////////
      heating_setpoint 5;
       cooling_setpoint 25;                              
      
      air_temperature 72;
       outdoor_temperature 73; 
      
      
      //////////////////////////////////////////////////////
     //cooling_setpoint 70;
     // heating_setpoint 65;
     // air_temperature 72;
      
       object controller {
       			name hvac_control4;
       			market Market_town1;
       			market_reactive Market_town2;
       			bid_mode ON;
       			control_mode DOUBLE_RAMP;
       			resolve_mode DEADBAND;
       			// slider_setting_heat 1;
       			// slider_setting_cool 1;
       			heating_base_setpoint 5;
       			cooling_base_setpoint 30;
       			period 900;
       			
       			average_target current_price_mean_30min;
       			standard_deviation_target current_price_stdev_30min;
       			target air_temperature;
       			heating_setpoint heating_setpoint;
       			heating_demand heating_demand;
       			cooling_setpoint cooling_setpoint;
       			cooling_demand cooling_demand;
       			deadband thermostat_deadband;
       			total hvac_load;
       			load hvac_load;
       			state power_state;
       			heating_range_high 4;
       			heating_range_low -5;
       			heating_ramp_high -2;
       			heating_ramp_low -2;
       			cooling_range_high 5;
       			cooling_range_low -4;
       			cooling_ramp_high 2;
       			cooling_ramp_low 3;
       			
       			 object multi_recorder {
      							property bid_quantity,bid_price;
      							file "active4.csv";
      							 interval 900;
      							 limit 4320;
      			 };
       			
     			};
      
      
     object reactive_controller {
     			
     			name hvac_control24;
      			market Market_town2;
      			bid_mode ON;
      			period 900;
      			average_target current_price_mean_30min;
      			standard_deviation_target current_price_stdev_30min;
      			//total total_load;
      			///load hvac_load;
      			reactive reactive;
      			object multi_recorder {
     										property bid_quantity,bid_price;
     										file "reactive4.csv";
     										 interval 900;
     										 limit 4320;
     			 };
     
     
     };
    
     
     
}